
---------- Begin Simulation Statistics ----------
sim_seconds                                  0.307046                       # Number of seconds simulated
sim_ticks                                307046012000                       # Number of ticks simulated
final_tick                               307046012000                       # Number of ticks from beginning of simulation (restored from checkpoints and never reset)
sim_freq                                 1000000000000                       # Frequency of simulated ticks
host_inst_rate                                   7359                       # Simulator instruction rate (inst/s)
host_op_rate                                     8446                       # Simulator op (including micro ops) rate (op/s)
host_tick_rate                              225942525                       # Simulator tick rate (ticks/s)
host_mem_usage                                 782232                       # Number of bytes of host memory used
host_seconds                                  1358.96                       # Real time elapsed on the host
sim_insts                                    10000004                       # Number of instructions simulated
sim_ops                                      11477390                       # Number of ops (including micro ops) simulated
system.voltage_domain.voltage                       1                       # Voltage in Volts
system.clk_domain.clock                          1000                       # Clock period in ticks
system.mem_ctrls.bytes_read::cpu.inst           25152                       # Number of bytes read from this memory
system.mem_ctrls.bytes_read::cpu.data        70728576                       # Number of bytes read from this memory
system.mem_ctrls.bytes_read::total           70753728                       # Number of bytes read from this memory
system.mem_ctrls.bytes_inst_read::cpu.inst        25152                       # Number of instructions bytes read from this memory
system.mem_ctrls.bytes_inst_read::total         25152                       # Number of instructions bytes read from this memory
system.mem_ctrls.bytes_written::writebacks     41677440                       # Number of bytes written to this memory
system.mem_ctrls.bytes_written::total        41677440                       # Number of bytes written to this memory
system.mem_ctrls.num_reads::cpu.inst              393                       # Number of read requests responded to by this memory
system.mem_ctrls.num_reads::cpu.data          1105134                       # Number of read requests responded to by this memory
system.mem_ctrls.num_reads::total             1105527                       # Number of read requests responded to by this memory
system.mem_ctrls.num_writes::writebacks        651210                       # Number of write requests responded to by this memory
system.mem_ctrls.num_writes::total             651210                       # Number of write requests responded to by this memory
system.mem_ctrls.bw_read::cpu.inst              81916                       # Total read bandwidth from this memory (bytes/s)
system.mem_ctrls.bw_read::cpu.data          230351717                       # Total read bandwidth from this memory (bytes/s)
system.mem_ctrls.bw_read::total             230433633                       # Total read bandwidth from this memory (bytes/s)
system.mem_ctrls.bw_inst_read::cpu.inst         81916                       # Instruction read bandwidth from this memory (bytes/s)
system.mem_ctrls.bw_inst_read::total            81916                       # Instruction read bandwidth from this memory (bytes/s)
system.mem_ctrls.bw_write::writebacks       135736790                       # Write bandwidth from this memory (bytes/s)
system.mem_ctrls.bw_write::total            135736790                       # Write bandwidth from this memory (bytes/s)
system.mem_ctrls.bw_total::writebacks       135736790                       # Total bandwidth to/from this memory (bytes/s)
system.mem_ctrls.bw_total::cpu.inst             81916                       # Total bandwidth to/from this memory (bytes/s)
system.mem_ctrls.bw_total::cpu.data         230351717                       # Total bandwidth to/from this memory (bytes/s)
system.mem_ctrls.bw_total::total            366170423                       # Total bandwidth to/from this memory (bytes/s)
system.membus.throughput                    366170423                       # Throughput (bytes/s)
system.membus.trans_dist::ReadReq              512374                       # Transaction distribution
system.membus.trans_dist::ReadResp             512373                       # Transaction distribution
system.membus.trans_dist::Writeback            651210                       # Transaction distribution
system.membus.trans_dist::UpgradeReq                1                       # Transaction distribution
system.membus.trans_dist::UpgradeResp               1                       # Transaction distribution
system.membus.trans_dist::ReadExReq            593154                       # Transaction distribution
system.membus.trans_dist::ReadExResp           593154                       # Transaction distribution
system.membus.pkt_count_system.l2.mem_side::system.mem_ctrls.port      2862267                       # Packet count per connected master and slave (bytes)
system.membus.pkt_count_system.l2.mem_side::total      2862267                       # Packet count per connected master and slave (bytes)
system.membus.pkt_count::total                2862267                       # Packet count per connected master and slave (bytes)
system.membus.tot_pkt_size_system.l2.mem_side::system.mem_ctrls.port    112431168                       # Cumulative packet size per connected master and slave (bytes)
system.membus.tot_pkt_size_system.l2.mem_side::total    112431168                       # Cumulative packet size per connected master and slave (bytes)
system.membus.tot_pkt_size::total           112431168                       # Cumulative packet size per connected master and slave (bytes)
system.membus.data_through_bus              112431168                       # Total data (bytes)
system.membus.snoop_data_through_bus                0                       # Total snoop data (bytes)
system.membus.reqLayer2.occupancy          6995380000                       # Layer occupancy (ticks)
system.membus.reqLayer2.utilization               2.3                       # Layer utilization (%)
system.membus.respLayer1.occupancy         9949744500                       # Layer occupancy (ticks)
system.membus.respLayer1.utilization              3.2                       # Layer utilization (%)
system.cpu_voltage_domain.voltage                   1                       # Voltage in Volts
system.cpu_clk_domain.clock                       500                       # Clock period in ticks
system.l2.tags.replacements                   1101431                       # number of replacements
system.l2.tags.tagsinuse                  3469.746303                       # Cycle average of tags in use
system.l2.tags.total_refs                       68606                       # Total number of references to valid blocks.
system.l2.tags.sampled_refs                   1105271                       # Sample count of references to valid blocks.
system.l2.tags.avg_refs                      0.062072                       # Average number of references to valid blocks.
system.l2.tags.warmup_cycle               37068691000                       # Cycle when the warmup percentage was hit.
system.l2.tags.occ_blocks::writebacks     1460.091203                       # Average occupied blocks per requestor
system.l2.tags.occ_blocks::cpu.inst         31.965613                       # Average occupied blocks per requestor
system.l2.tags.occ_blocks::cpu.data       1977.689487                       # Average occupied blocks per requestor
system.l2.tags.occ_percent::writebacks       0.356468                       # Average percentage of cache occupancy
system.l2.tags.occ_percent::cpu.inst         0.007804                       # Average percentage of cache occupancy
system.l2.tags.occ_percent::cpu.data         0.482834                       # Average percentage of cache occupancy
system.l2.tags.occ_percent::total            0.847106                       # Average percentage of cache occupancy
system.l2.tags.occ_task_id_blocks::1024          3840                       # Occupied blocks per task id
system.l2.tags.age_task_id_blocks_1024::0           33                       # Occupied blocks per task id
system.l2.tags.age_task_id_blocks_1024::1          282                       # Occupied blocks per task id
system.l2.tags.age_task_id_blocks_1024::2         2870                       # Occupied blocks per task id
system.l2.tags.age_task_id_blocks_1024::3          655                       # Occupied blocks per task id
system.l2.tags.occ_task_id_percent::1024     0.937500                       # Percentage of cache occupancy per task id
system.l2.tags.tag_accesses                  15835238                       # Number of tag accesses
system.l2.tags.data_accesses                 15835238                       # Number of data accesses
system.l2.ReadReq_hits::cpu.inst                   19                       # number of ReadReq hits
system.l2.ReadReq_hits::cpu.data                 4250                       # number of ReadReq hits
system.l2.ReadReq_hits::total                    4269                       # number of ReadReq hits
system.l2.Writeback_hits::writebacks           657235                       # number of Writeback hits
system.l2.Writeback_hits::total                657235                       # number of Writeback hits
system.l2.ReadExReq_hits::cpu.data                 61                       # number of ReadExReq hits
system.l2.ReadExReq_hits::total                    61                       # number of ReadExReq hits
system.l2.demand_hits::cpu.inst                    19                       # number of demand (read+write) hits
system.l2.demand_hits::cpu.data                  4311                       # number of demand (read+write) hits
system.l2.demand_hits::total                     4330                       # number of demand (read+write) hits
system.l2.overall_hits::cpu.inst                   19                       # number of overall hits
system.l2.overall_hits::cpu.data                 4311                       # number of overall hits
system.l2.overall_hits::total                    4330                       # number of overall hits
system.l2.ReadReq_misses::cpu.inst                393                       # number of ReadReq misses
system.l2.ReadReq_misses::cpu.data             511981                       # number of ReadReq misses
system.l2.ReadReq_misses::total                512374                       # number of ReadReq misses
system.l2.UpgradeReq_misses::cpu.data               1                       # number of UpgradeReq misses
system.l2.UpgradeReq_misses::total                  1                       # number of UpgradeReq misses
system.l2.ReadExReq_misses::cpu.data           593154                       # number of ReadExReq misses
system.l2.ReadExReq_misses::total              593154                       # number of ReadExReq misses
system.l2.demand_misses::cpu.inst                 393                       # number of demand (read+write) misses
system.l2.demand_misses::cpu.data             1105135                       # number of demand (read+write) misses
system.l2.demand_misses::total                1105528                       # number of demand (read+write) misses
system.l2.overall_misses::cpu.inst                393                       # number of overall misses
system.l2.overall_misses::cpu.data            1105135                       # number of overall misses
system.l2.overall_misses::total               1105528                       # number of overall misses
system.l2.ReadReq_miss_latency::cpu.inst     63870000                       # number of ReadReq miss cycles
system.l2.ReadReq_miss_latency::cpu.data 293898719000                       # number of ReadReq miss cycles
system.l2.ReadReq_miss_latency::total    293962589000                       # number of ReadReq miss cycles
system.l2.ReadExReq_miss_latency::cpu.data 275612828000                       # number of ReadExReq miss cycles
system.l2.ReadExReq_miss_latency::total  275612828000                       # number of ReadExReq miss cycles
system.l2.demand_miss_latency::cpu.inst      63870000                       # number of demand (read+write) miss cycles
system.l2.demand_miss_latency::cpu.data  569511547000                       # number of demand (read+write) miss cycles
system.l2.demand_miss_latency::total     569575417000                       # number of demand (read+write) miss cycles
system.l2.overall_miss_latency::cpu.inst     63870000                       # number of overall miss cycles
system.l2.overall_miss_latency::cpu.data 569511547000                       # number of overall miss cycles
system.l2.overall_miss_latency::total    569575417000                       # number of overall miss cycles
system.l2.ReadReq_accesses::cpu.inst              412                       # number of ReadReq accesses(hits+misses)
system.l2.ReadReq_accesses::cpu.data           516231                       # number of ReadReq accesses(hits+misses)
system.l2.ReadReq_accesses::total              516643                       # number of ReadReq accesses(hits+misses)
system.l2.Writeback_accesses::writebacks       657235                       # number of Writeback accesses(hits+misses)
system.l2.Writeback_accesses::total            657235                       # number of Writeback accesses(hits+misses)
system.l2.UpgradeReq_accesses::cpu.data             1                       # number of UpgradeReq accesses(hits+misses)
system.l2.UpgradeReq_accesses::total                1                       # number of UpgradeReq accesses(hits+misses)
system.l2.ReadExReq_accesses::cpu.data         593215                       # number of ReadExReq accesses(hits+misses)
system.l2.ReadExReq_accesses::total            593215                       # number of ReadExReq accesses(hits+misses)
system.l2.demand_accesses::cpu.inst               412                       # number of demand (read+write) accesses
system.l2.demand_accesses::cpu.data           1109446                       # number of demand (read+write) accesses
system.l2.demand_accesses::total              1109858                       # number of demand (read+write) accesses
system.l2.overall_accesses::cpu.inst              412                       # number of overall (read+write) accesses
system.l2.overall_accesses::cpu.data          1109446                       # number of overall (read+write) accesses
system.l2.overall_accesses::total             1109858                       # number of overall (read+write) accesses
system.l2.ReadReq_miss_rate::cpu.inst        0.953883                       # miss rate for ReadReq accesses
system.l2.ReadReq_miss_rate::cpu.data        0.991767                       # miss rate for ReadReq accesses
system.l2.ReadReq_miss_rate::total           0.991737                       # miss rate for ReadReq accesses
system.l2.UpgradeReq_miss_rate::cpu.data            1                       # miss rate for UpgradeReq accesses
system.l2.UpgradeReq_miss_rate::total               1                       # miss rate for UpgradeReq accesses
system.l2.ReadExReq_miss_rate::cpu.data      0.999897                       # miss rate for ReadExReq accesses
system.l2.ReadExReq_miss_rate::total         0.999897                       # miss rate for ReadExReq accesses
system.l2.demand_miss_rate::cpu.inst         0.953883                       # miss rate for demand accesses
system.l2.demand_miss_rate::cpu.data         0.996114                       # miss rate for demand accesses
system.l2.demand_miss_rate::total            0.996099                       # miss rate for demand accesses
system.l2.overall_miss_rate::cpu.inst        0.953883                       # miss rate for overall accesses
system.l2.overall_miss_rate::cpu.data        0.996114                       # miss rate for overall accesses
system.l2.overall_miss_rate::total           0.996099                       # miss rate for overall accesses
system.l2.ReadReq_avg_miss_latency::cpu.inst 162519.083969                       # average ReadReq miss latency
system.l2.ReadReq_avg_miss_latency::cpu.data 574042.237896                       # average ReadReq miss latency
system.l2.ReadReq_avg_miss_latency::total 573726.592294                       # average ReadReq miss latency
system.l2.ReadExReq_avg_miss_latency::cpu.data 464656.443352                       # average ReadExReq miss latency
system.l2.ReadExReq_avg_miss_latency::total 464656.443352                       # average ReadExReq miss latency
system.l2.demand_avg_miss_latency::cpu.inst 162519.083969                       # average overall miss latency
system.l2.demand_avg_miss_latency::cpu.data 515332.106032                       # average overall miss latency
system.l2.demand_avg_miss_latency::total 515206.685855                       # average overall miss latency
system.l2.overall_avg_miss_latency::cpu.inst 162519.083969                       # average overall miss latency
system.l2.overall_avg_miss_latency::cpu.data 515332.106032                       # average overall miss latency
system.l2.overall_avg_miss_latency::total 515206.685855                       # average overall miss latency
system.l2.blocked_cycles::no_mshrs                  0                       # number of cycles access was blocked
system.l2.blocked_cycles::no_targets                0                       # number of cycles access was blocked
system.l2.blocked::no_mshrs                         0                       # number of cycles access was blocked
system.l2.blocked::no_targets                       0                       # number of cycles access was blocked
system.l2.avg_blocked_cycles::no_mshrs            nan                       # average number of cycles each access was blocked
system.l2.avg_blocked_cycles::no_targets          nan                       # average number of cycles each access was blocked
system.l2.fast_writes                               0                       # number of fast writes performed
system.l2.cache_copies                              0                       # number of cache copies performed
system.l2.writebacks::writebacks               651210                       # number of writebacks
system.l2.writebacks::total                    651210                       # number of writebacks
system.l2.ReadReq_mshr_misses::cpu.inst           393                       # number of ReadReq MSHR misses
system.l2.ReadReq_mshr_misses::cpu.data        511981                       # number of ReadReq MSHR misses
system.l2.ReadReq_mshr_misses::total           512374                       # number of ReadReq MSHR misses
system.l2.UpgradeReq_mshr_misses::cpu.data            1                       # number of UpgradeReq MSHR misses
system.l2.UpgradeReq_mshr_misses::total             1                       # number of UpgradeReq MSHR misses
system.l2.ReadExReq_mshr_misses::cpu.data       593154                       # number of ReadExReq MSHR misses
system.l2.ReadExReq_mshr_misses::total         593154                       # number of ReadExReq MSHR misses
system.l2.demand_mshr_misses::cpu.inst            393                       # number of demand (read+write) MSHR misses
system.l2.demand_mshr_misses::cpu.data        1105135                       # number of demand (read+write) MSHR misses
system.l2.demand_mshr_misses::total           1105528                       # number of demand (read+write) MSHR misses
system.l2.overall_mshr_misses::cpu.inst           393                       # number of overall MSHR misses
system.l2.overall_mshr_misses::cpu.data       1105135                       # number of overall MSHR misses
system.l2.overall_mshr_misses::total          1105528                       # number of overall MSHR misses
system.l2.ReadReq_mshr_miss_latency::cpu.inst     59154000                       # number of ReadReq MSHR miss cycles
system.l2.ReadReq_mshr_miss_latency::cpu.data 287754959000                       # number of ReadReq MSHR miss cycles
system.l2.ReadReq_mshr_miss_latency::total 287814113000                       # number of ReadReq MSHR miss cycles
system.l2.UpgradeReq_mshr_miss_latency::cpu.data        11000                       # number of UpgradeReq MSHR miss cycles
system.l2.UpgradeReq_mshr_miss_latency::total        11000                       # number of UpgradeReq MSHR miss cycles
system.l2.ReadExReq_mshr_miss_latency::cpu.data 268494980000                       # number of ReadExReq MSHR miss cycles
system.l2.ReadExReq_mshr_miss_latency::total 268494980000                       # number of ReadExReq MSHR miss cycles
system.l2.demand_mshr_miss_latency::cpu.inst     59154000                       # number of demand (read+write) MSHR miss cycles
system.l2.demand_mshr_miss_latency::cpu.data 556249939000                       # number of demand (read+write) MSHR miss cycles
system.l2.demand_mshr_miss_latency::total 556309093000                       # number of demand (read+write) MSHR miss cycles
system.l2.overall_mshr_miss_latency::cpu.inst     59154000                       # number of overall MSHR miss cycles
system.l2.overall_mshr_miss_latency::cpu.data 556249939000                       # number of overall MSHR miss cycles
system.l2.overall_mshr_miss_latency::total 556309093000                       # number of overall MSHR miss cycles
system.l2.ReadReq_mshr_miss_rate::cpu.inst     0.953883                       # mshr miss rate for ReadReq accesses
system.l2.ReadReq_mshr_miss_rate::cpu.data     0.991767                       # mshr miss rate for ReadReq accesses
system.l2.ReadReq_mshr_miss_rate::total      0.991737                       # mshr miss rate for ReadReq accesses
system.l2.UpgradeReq_mshr_miss_rate::cpu.data            1                       # mshr miss rate for UpgradeReq accesses
system.l2.UpgradeReq_mshr_miss_rate::total            1                       # mshr miss rate for UpgradeReq accesses
system.l2.ReadExReq_mshr_miss_rate::cpu.data     0.999897                       # mshr miss rate for ReadExReq accesses
system.l2.ReadExReq_mshr_miss_rate::total     0.999897                       # mshr miss rate for ReadExReq accesses
system.l2.demand_mshr_miss_rate::cpu.inst     0.953883                       # mshr miss rate for demand accesses
system.l2.demand_mshr_miss_rate::cpu.data     0.996114                       # mshr miss rate for demand accesses
system.l2.demand_mshr_miss_rate::total       0.996099                       # mshr miss rate for demand accesses
system.l2.overall_mshr_miss_rate::cpu.inst     0.953883                       # mshr miss rate for overall accesses
system.l2.overall_mshr_miss_rate::cpu.data     0.996114                       # mshr miss rate for overall accesses
system.l2.overall_mshr_miss_rate::total      0.996099                       # mshr miss rate for overall accesses
system.l2.ReadReq_avg_mshr_miss_latency::cpu.inst 150519.083969                       # average ReadReq mshr miss latency
system.l2.ReadReq_avg_mshr_miss_latency::cpu.data 562042.261334                       # average ReadReq mshr miss latency
system.l2.ReadReq_avg_mshr_miss_latency::total 561726.615714                       # average ReadReq mshr miss latency
system.l2.UpgradeReq_avg_mshr_miss_latency::cpu.data        11000                       # average UpgradeReq mshr miss latency
system.l2.UpgradeReq_avg_mshr_miss_latency::total        11000                       # average UpgradeReq mshr miss latency
system.l2.ReadExReq_avg_mshr_miss_latency::cpu.data 452656.443352                       # average ReadExReq mshr miss latency
system.l2.ReadExReq_avg_mshr_miss_latency::total 452656.443352                       # average ReadExReq mshr miss latency
system.l2.demand_avg_mshr_miss_latency::cpu.inst 150519.083969                       # average overall mshr miss latency
system.l2.demand_avg_mshr_miss_latency::cpu.data 503332.116891                       # average overall mshr miss latency
system.l2.demand_avg_mshr_miss_latency::total 503206.696710                       # average overall mshr miss latency
system.l2.overall_avg_mshr_miss_latency::cpu.inst 150519.083969                       # average overall mshr miss latency
system.l2.overall_avg_mshr_miss_latency::cpu.data 503332.116891                       # average overall mshr miss latency
system.l2.overall_avg_mshr_miss_latency::total 503206.696710                       # average overall mshr miss latency
system.l2.no_allocate_misses                        0                       # Number of misses that were no-allocate
system.tol2bus.throughput                   368329005                       # Throughput (bytes/s)
system.tol2bus.trans_dist::ReadReq             516644                       # Transaction distribution
system.tol2bus.trans_dist::ReadResp            516643                       # Transaction distribution
system.tol2bus.trans_dist::Writeback           657235                       # Transaction distribution
system.tol2bus.trans_dist::UpgradeReq               1                       # Transaction distribution
system.tol2bus.trans_dist::UpgradeResp              1                       # Transaction distribution
system.tol2bus.trans_dist::ReadExReq           593215                       # Transaction distribution
system.tol2bus.trans_dist::ReadExResp          593215                       # Transaction distribution
system.tol2bus.pkt_count_system.cpu.icache.mem_side::system.l2.cpu_side          825                       # Packet count per connected master and slave (bytes)
system.tol2bus.pkt_count_system.cpu.dcache.mem_side::system.l2.cpu_side      2876128                       # Packet count per connected master and slave (bytes)
system.tol2bus.pkt_count::total               2876953                       # Packet count per connected master and slave (bytes)
system.tol2bus.tot_pkt_size_system.cpu.icache.mem_side::system.l2.cpu_side        26368                       # Cumulative packet size per connected master and slave (bytes)
system.tol2bus.tot_pkt_size_system.cpu.dcache.mem_side::system.l2.cpu_side    113067520                       # Cumulative packet size per connected master and slave (bytes)
system.tol2bus.tot_pkt_size::total          113093888                       # Cumulative packet size per connected master and slave (bytes)
system.tol2bus.data_through_bus             113093888                       # Total data (bytes)
system.tol2bus.snoop_data_through_bus              64                       # Total snoop data (bytes)
system.tol2bus.reqLayer0.occupancy         1540782500                       # Layer occupancy (ticks)
system.tol2bus.reqLayer0.utilization              0.5                       # Layer utilization (%)
system.tol2bus.respLayer0.occupancy            619500                       # Layer occupancy (ticks)
system.tol2bus.respLayer0.utilization             0.0                       # Layer utilization (%)
system.tol2bus.respLayer1.occupancy        1664168000                       # Layer occupancy (ticks)
system.tol2bus.respLayer1.utilization             0.5                       # Layer utilization (%)
system.cpu.branchPred.lookups                  879649                       # Number of BP lookups
system.cpu.branchPred.condPredicted            879649                       # Number of conditional branches predicted
system.cpu.branchPred.condIncorrect             26630                       # Number of conditional branches incorrect
system.cpu.branchPred.BTBLookups               767597                       # Number of BTB lookups
system.cpu.branchPred.BTBHits                  742777                       # Number of BTB hits
system.cpu.branchPred.BTBCorrect                    0                       # Number of correct BTB predictions (this stat may not work properly.
system.cpu.branchPred.BTBHitPct             96.766532                       # BTB Hit Percentage
system.cpu.branchPred.usedRAS                   20601                       # Number of times the RAS was used to get a target.
system.cpu.branchPred.RASInCorrect                 79                       # Number of incorrect RAS predictions.
system.cpu.apic_clk_domain.clock                 8000                       # Clock period in ticks
system.cpu.workload.num_syscalls                   36                       # Number of system calls
system.cpu.numCycles                        614092033                       # number of cpu cycles simulated
system.cpu.numWorkItemsStarted                      0                       # number of work items this cpu started
system.cpu.numWorkItemsCompleted                    0                       # number of work items this cpu completed
system.cpu.fetch.icacheStallCycles            2971757                       # Number of cycles fetch is stalled on an Icache miss
system.cpu.fetch.Insts                       22244666                       # Number of instructions fetch has processed
system.cpu.fetch.Branches                      879649                       # Number of branches that fetch encountered
system.cpu.fetch.predictedBranches             763378                       # Number of branches that fetch has predicted taken
system.cpu.fetch.Cycles                       4101742                       # Number of cycles fetch has run and was not squashing or blocked
system.cpu.fetch.SquashCycles                 1302461                       # Number of cycles fetch has spent squashing
system.cpu.fetch.BlockedCycles              566671136                       # Number of cycles fetch has spent blocked
system.cpu.fetch.MiscStallCycles                   94                       # Number of cycles fetch has spent waiting on interrupts, or bad addresses, or out of MSHRs
system.cpu.fetch.PendingTrapStallCycles           391                       # Number of stall cycles due to pending traps
system.cpu.fetch.IcacheWaitRetryStallCycles            7                       # Number of stall cycles due to full MSHR
system.cpu.fetch.CacheLines                   2370666                       # Number of cache lines fetched
system.cpu.fetch.IcacheSquashes                  5746                       # Number of outstanding Icache misses that were squashed
system.cpu.fetch.rateDist::samples          574430356                       # Number of instructions fetched each cycle (Total)
system.cpu.fetch.rateDist::mean              0.042857                       # Number of instructions fetched each cycle (Total)
system.cpu.fetch.rateDist::stdev             0.553842                       # Number of instructions fetched each cycle (Total)
system.cpu.fetch.rateDist::underflows               0      0.00%      0.00% # Number of instructions fetched each cycle (Total)
system.cpu.fetch.rateDist::0                570674710     99.35%     99.35% # Number of instructions fetched each cycle (Total)
system.cpu.fetch.rateDist::1                     3788      0.00%     99.35% # Number of instructions fetched each cycle (Total)
system.cpu.fetch.rateDist::2                   231291      0.04%     99.39% # Number of instructions fetched each cycle (Total)
system.cpu.fetch.rateDist::3                   395031      0.07%     99.46% # Number of instructions fetched each cycle (Total)
system.cpu.fetch.rateDist::4                   197972      0.03%     99.49% # Number of instructions fetched each cycle (Total)
system.cpu.fetch.rateDist::5                     8711      0.00%     99.49% # Number of instructions fetched each cycle (Total)
system.cpu.fetch.rateDist::6                   434545      0.08%     99.57% # Number of instructions fetched each cycle (Total)
system.cpu.fetch.rateDist::7                   350181      0.06%     99.63% # Number of instructions fetched each cycle (Total)
system.cpu.fetch.rateDist::8                  2134127      0.37%    100.00% # Number of instructions fetched each cycle (Total)
system.cpu.fetch.rateDist::overflows                0      0.00%    100.00% # Number of instructions fetched each cycle (Total)
system.cpu.fetch.rateDist::min_value                0                       # Number of instructions fetched each cycle (Total)
system.cpu.fetch.rateDist::max_value                8                       # Number of instructions fetched each cycle (Total)
system.cpu.fetch.rateDist::total            574430356                       # Number of instructions fetched each cycle (Total)
system.cpu.fetch.branchRate                  0.001432                       # Number of branch fetches per cycle
system.cpu.fetch.rate                        0.036224                       # Number of inst fetches per cycle
system.cpu.decode.IdleCycles                  4872793                       # Number of cycles decode is idle
system.cpu.decode.BlockedCycles             565401585                       # Number of cycles decode is blocked
system.cpu.decode.RunCycles                   3163700                       # Number of cycles decode is running
system.cpu.decode.UnblockCycles                307049                       # Number of cycles decode is unblocking
system.cpu.decode.SquashCycles                 685229                       # Number of cycles decode is squashing
system.cpu.decode.DecodedInsts               22368177                       # Number of instructions handled by decode
system.cpu.rename.SquashCycles                 685229                       # Number of cycles rename is squashing
system.cpu.rename.IdleCycles                  6006027                       # Number of cycles rename is idle
system.cpu.rename.BlockCycles               561079492                       # Number of cycles rename is blocking
system.cpu.rename.serializeStallCycles           8912                       # count of cycles rename stalled for serializing inst
system.cpu.rename.RunCycles                   2347352                       # Number of cycles rename is running
system.cpu.rename.UnblockCycles               4303344                       # Number of cycles rename is unblocking
system.cpu.rename.RenamedInsts               20105937                       # Number of instructions processed by rename
system.cpu.rename.ROBFullEvents                 86391                       # Number of times rename has blocked due to ROB full
system.cpu.rename.IQFullEvents                    327                       # Number of times rename has blocked due to IQ full
system.cpu.rename.LSQFullEvents               4544365                       # Number of times rename has blocked due to LSQ full
system.cpu.rename.RenamedOperands            13939383                       # Number of destination operands rename has renamed
system.cpu.rename.RenameLookups              64377510                       # Number of register rename lookups that rename has made
system.cpu.rename.int_rename_lookups         44550749                       # Number of integer rename lookups
system.cpu.rename.fp_rename_lookups                18                       # Number of floating rename lookups
system.cpu.rename.CommittedMaps               8093694                       # Number of HB maps that are committed
system.cpu.rename.UndoneMaps                  5845656                       # Number of HB maps that are undone due to squashing
system.cpu.rename.serializingInsts                 45                       # count of serializing insts renamed
system.cpu.rename.tempSerializingInsts             45                       # count of temporary serializing insts renamed
system.cpu.rename.skidInsts                  10552834                       # count of insts added to the skid buffer
system.cpu.memDep0.insertedLoads              7789462                       # Number of loads inserted to the mem dependence unit.
system.cpu.memDep0.insertedStores             4225244                       # Number of stores inserted to the mem dependence unit.
system.cpu.memDep0.conflictingLoads               113                       # Number of conflicting loads.
system.cpu.memDep0.conflictingStores              422                       # Number of conflicting stores.
system.cpu.iq.iqInstsAdded                   15540100                       # Number of instructions added to the IQ (excludes non-spec)
system.cpu.iq.iqNonSpecInstsAdded              393269                       # Number of non-speculative instructions added to the IQ
system.cpu.iq.iqInstsIssued                  15840413                       # Number of instructions issued
system.cpu.iq.iqSquashedInstsIssued             30382                       # Number of squashed instructions issued
system.cpu.iq.iqSquashedInstsExamined         4444359                       # Number of squashed instructions iterated over during squash; mainly for profiling
system.cpu.iq.iqSquashedOperandsExamined     12038624                       # Number of squashed operands that are examined and possibly removed from graph
system.cpu.iq.iqSquashedNonSpecRemoved             67                       # Number of squashed non-spec instructions that were removed
system.cpu.iq.issued_per_cycle::samples     574430356                       # Number of insts issued each cycle
system.cpu.iq.issued_per_cycle::mean         0.027576                       # Number of insts issued each cycle
system.cpu.iq.issued_per_cycle::stdev        0.276400                       # Number of insts issued each cycle
system.cpu.iq.issued_per_cycle::underflows            0      0.00%      0.00% # Number of insts issued each cycle
system.cpu.iq.issued_per_cycle::0           566506020     98.62%     98.62% # Number of insts issued each cycle
system.cpu.iq.issued_per_cycle::1             4319866      0.75%     99.37% # Number of insts issued each cycle
system.cpu.iq.issued_per_cycle::2             1161624      0.20%     99.57% # Number of insts issued each cycle
system.cpu.iq.issued_per_cycle::3              663194      0.12%     99.69% # Number of insts issued each cycle
system.cpu.iq.issued_per_cycle::4             1732592      0.30%     99.99% # Number of insts issued each cycle
system.cpu.iq.issued_per_cycle::5               14167      0.00%     99.99% # Number of insts issued each cycle
system.cpu.iq.issued_per_cycle::6               27549      0.00%    100.00% # Number of insts issued each cycle
system.cpu.iq.issued_per_cycle::7                1532      0.00%    100.00% # Number of insts issued each cycle
system.cpu.iq.issued_per_cycle::8                3812      0.00%    100.00% # Number of insts issued each cycle
system.cpu.iq.issued_per_cycle::overflows            0      0.00%    100.00% # Number of insts issued each cycle
system.cpu.iq.issued_per_cycle::min_value            0                       # Number of insts issued each cycle
system.cpu.iq.issued_per_cycle::max_value            8                       # Number of insts issued each cycle
system.cpu.iq.issued_per_cycle::total       574430356                       # Number of insts issued each cycle
system.cpu.iq.fu_full::No_OpClass                   0      0.00%      0.00% # attempts to use FU when none available
system.cpu.iq.fu_full::IntAlu                     402      0.13%      0.13% # attempts to use FU when none available
system.cpu.iq.fu_full::IntMult                      0      0.00%      0.13% # attempts to use FU when none available
system.cpu.iq.fu_full::IntDiv                       0      0.00%      0.13% # attempts to use FU when none available
system.cpu.iq.fu_full::FloatAdd                     0      0.00%      0.13% # attempts to use FU when none available
system.cpu.iq.fu_full::FloatCmp                     0      0.00%      0.13% # attempts to use FU when none available
system.cpu.iq.fu_full::FloatCvt                     0      0.00%      0.13% # attempts to use FU when none available
system.cpu.iq.fu_full::FloatMult                    0      0.00%      0.13% # attempts to use FU when none available
system.cpu.iq.fu_full::FloatDiv                     0      0.00%      0.13% # attempts to use FU when none available
system.cpu.iq.fu_full::FloatSqrt                    0      0.00%      0.13% # attempts to use FU when none available
system.cpu.iq.fu_full::SimdAdd                      0      0.00%      0.13% # attempts to use FU when none available
system.cpu.iq.fu_full::SimdAddAcc                   0      0.00%      0.13% # attempts to use FU when none available
system.cpu.iq.fu_full::SimdAlu                      0      0.00%      0.13% # attempts to use FU when none available
system.cpu.iq.fu_full::SimdCmp                      0      0.00%      0.13% # attempts to use FU when none available
system.cpu.iq.fu_full::SimdCvt                      0      0.00%      0.13% # attempts to use FU when none available
system.cpu.iq.fu_full::SimdMisc                     0      0.00%      0.13% # attempts to use FU when none available
system.cpu.iq.fu_full::SimdMult                     0      0.00%      0.13% # attempts to use FU when none available
system.cpu.iq.fu_full::SimdMultAcc                  0      0.00%      0.13% # attempts to use FU when none available
system.cpu.iq.fu_full::SimdShift                    0      0.00%      0.13% # attempts to use FU when none available
system.cpu.iq.fu_full::SimdShiftAcc                 0      0.00%      0.13% # attempts to use FU when none available
system.cpu.iq.fu_full::SimdSqrt                     0      0.00%      0.13% # attempts to use FU when none available
system.cpu.iq.fu_full::SimdFloatAdd                 0      0.00%      0.13% # attempts to use FU when none available
system.cpu.iq.fu_full::SimdFloatAlu                 0      0.00%      0.13% # attempts to use FU when none available
system.cpu.iq.fu_full::SimdFloatCmp                 0      0.00%      0.13% # attempts to use FU when none available
system.cpu.iq.fu_full::SimdFloatCvt                 0      0.00%      0.13% # attempts to use FU when none available
system.cpu.iq.fu_full::SimdFloatDiv                 0      0.00%      0.13% # attempts to use FU when none available
system.cpu.iq.fu_full::SimdFloatMisc                0      0.00%      0.13% # attempts to use FU when none available
system.cpu.iq.fu_full::SimdFloatMult                0      0.00%      0.13% # attempts to use FU when none available
system.cpu.iq.fu_full::SimdFloatMultAcc             0      0.00%      0.13% # attempts to use FU when none available
system.cpu.iq.fu_full::SimdFloatSqrt                0      0.00%      0.13% # attempts to use FU when none available
system.cpu.iq.fu_full::MemRead                  49073     15.65%     15.78% # attempts to use FU when none available
system.cpu.iq.fu_full::MemWrite                264061     84.22%    100.00% # attempts to use FU when none available
system.cpu.iq.fu_full::IprAccess                    0      0.00%    100.00% # attempts to use FU when none available
system.cpu.iq.fu_full::InstPrefetch                 0      0.00%    100.00% # attempts to use FU when none available
system.cpu.iq.FU_type_0::No_OpClass            441944      2.79%      2.79% # Type of FU issued
system.cpu.iq.FU_type_0::IntAlu               3410702     21.53%     24.32% # Type of FU issued
system.cpu.iq.FU_type_0::IntMult                  138      0.00%     24.32% # Type of FU issued
system.cpu.iq.FU_type_0::IntDiv                   155      0.00%     24.32% # Type of FU issued
system.cpu.iq.FU_type_0::FloatAdd                   8      0.00%     24.32% # Type of FU issued
system.cpu.iq.FU_type_0::FloatCmp                   0      0.00%     24.32% # Type of FU issued
system.cpu.iq.FU_type_0::FloatCvt                   0      0.00%     24.32% # Type of FU issued
system.cpu.iq.FU_type_0::FloatMult                  0      0.00%     24.32% # Type of FU issued
system.cpu.iq.FU_type_0::FloatDiv                   0      0.00%     24.32% # Type of FU issued
system.cpu.iq.FU_type_0::FloatSqrt                  0      0.00%     24.32% # Type of FU issued
system.cpu.iq.FU_type_0::SimdAdd                    0      0.00%     24.32% # Type of FU issued
system.cpu.iq.FU_type_0::SimdAddAcc                 0      0.00%     24.32% # Type of FU issued
system.cpu.iq.FU_type_0::SimdAlu                    0      0.00%     24.32% # Type of FU issued
system.cpu.iq.FU_type_0::SimdCmp                    0      0.00%     24.32% # Type of FU issued
system.cpu.iq.FU_type_0::SimdCvt                    0      0.00%     24.32% # Type of FU issued
system.cpu.iq.FU_type_0::SimdMisc                   0      0.00%     24.32% # Type of FU issued
system.cpu.iq.FU_type_0::SimdMult                   0      0.00%     24.32% # Type of FU issued
system.cpu.iq.FU_type_0::SimdMultAcc                0      0.00%     24.32% # Type of FU issued
system.cpu.iq.FU_type_0::SimdShift                  0      0.00%     24.32% # Type of FU issued
system.cpu.iq.FU_type_0::SimdShiftAcc               0      0.00%     24.32% # Type of FU issued
system.cpu.iq.FU_type_0::SimdSqrt                   0      0.00%     24.32% # Type of FU issued
system.cpu.iq.FU_type_0::SimdFloatAdd               0      0.00%     24.32% # Type of FU issued
system.cpu.iq.FU_type_0::SimdFloatAlu               0      0.00%     24.32% # Type of FU issued
system.cpu.iq.FU_type_0::SimdFloatCmp               0      0.00%     24.32% # Type of FU issued
system.cpu.iq.FU_type_0::SimdFloatCvt               0      0.00%     24.32% # Type of FU issued
system.cpu.iq.FU_type_0::SimdFloatDiv               0      0.00%     24.32% # Type of FU issued
system.cpu.iq.FU_type_0::SimdFloatMisc              0      0.00%     24.32% # Type of FU issued
system.cpu.iq.FU_type_0::SimdFloatMult              0      0.00%     24.32% # Type of FU issued
system.cpu.iq.FU_type_0::SimdFloatMultAcc            0      0.00%     24.32% # Type of FU issued
system.cpu.iq.FU_type_0::SimdFloatSqrt              0      0.00%     24.32% # Type of FU issued
system.cpu.iq.FU_type_0::MemRead              7784679     49.14%     73.47% # Type of FU issued
system.cpu.iq.FU_type_0::MemWrite             4202787     26.53%    100.00% # Type of FU issued
system.cpu.iq.FU_type_0::IprAccess                  0      0.00%    100.00% # Type of FU issued
system.cpu.iq.FU_type_0::InstPrefetch               0      0.00%    100.00% # Type of FU issued
system.cpu.iq.FU_type_0::total               15840413                       # Type of FU issued
system.cpu.iq.rate                           0.025795                       # Inst issue rate
system.cpu.iq.fu_busy_cnt                      313536                       # FU busy when requested
system.cpu.iq.fu_busy_rate                   0.019793                       # FU busy rate (busy events/executed inst)
system.cpu.iq.int_inst_queue_reads          606455074                       # Number of integer instruction queue reads
system.cpu.iq.int_inst_queue_writes          20377743                       # Number of integer instruction queue writes
system.cpu.iq.int_inst_queue_wakeup_accesses     11839519                       # Number of integer instruction queue wakeup accesses
system.cpu.iq.fp_inst_queue_reads                  26                       # Number of floating instruction queue reads
system.cpu.iq.fp_inst_queue_writes                 15                       # Number of floating instruction queue writes
system.cpu.iq.fp_inst_queue_wakeup_accesses           10                       # Number of floating instruction queue wakeup accesses
system.cpu.iq.int_alu_accesses               15711992                       # Number of integer alu accesses
system.cpu.iq.fp_alu_accesses                      13                       # Number of floating point alu accesses
system.cpu.iew.lsq.thread0.forwLoads              729                       # Number of loads that had data forwarded from stores
system.cpu.iew.lsq.thread0.invAddrLoads             0                       # Number of loads ignored due to an invalid address
system.cpu.iew.lsq.thread0.squashedLoads      3815815                       # Number of loads squashed
system.cpu.iew.lsq.thread0.ignoredResponses            2                       # Number of memory responses ignored because the instruction is squashed
system.cpu.iew.lsq.thread0.memOrderViolation           30                       # Number of memory ordering violations
system.cpu.iew.lsq.thread0.squashedStores       373267                       # Number of stores squashed
system.cpu.iew.lsq.thread0.invAddrSwpfs             0                       # Number of software prefetches ignored due to an invalid address
system.cpu.iew.lsq.thread0.blockedLoads             0                       # Number of blocked loads due to partial load-store forwarding
system.cpu.iew.lsq.thread0.rescheduledLoads           19                       # Number of loads that were rescheduled
system.cpu.iew.lsq.thread0.cacheBlocked       3792150                       # Number of times an access to memory failed due to the cache being blocked
system.cpu.iew.iewIdleCycles                        0                       # Number of cycles IEW is idle
system.cpu.iew.iewSquashCycles                 685229                       # Number of cycles IEW is squashing
system.cpu.iew.iewBlockCycles               549666637                       # Number of cycles IEW is blocking
system.cpu.iew.iewUnblockCycles                956573                       # Number of cycles IEW is unblocking
system.cpu.iew.iewDispatchedInsts            15933369                       # Number of instructions dispatched to IQ
system.cpu.iew.iewDispSquashedInsts            870750                       # Number of squashed instructions skipped by dispatch
system.cpu.iew.iewDispLoadInsts               7789462                       # Number of dispatched load instructions
system.cpu.iew.iewDispStoreInsts              4225244                       # Number of dispatched store instructions
system.cpu.iew.iewDispNonSpecInsts             393213                       # Number of dispatched non-speculative instructions
system.cpu.iew.iewIQFullEvents                   1485                       # Number of times the IQ has become full, causing a stall
system.cpu.iew.iewLSQFullEvents                393581                       # Number of times the LSQ has become full, causing a stall
system.cpu.iew.memOrderViolationEvents             30                       # Number of memory order violations
system.cpu.iew.predictedTakenIncorrect            375                       # Number of branches that were predicted taken incorrectly
system.cpu.iew.predictedNotTakenIncorrect        26498                       # Number of branches that were predicted not taken incorrectly
system.cpu.iew.branchMispredicts                26873                       # Number of branch mispredicts detected at execute
system.cpu.iew.iewExecutedInsts              15586779                       # Number of executed instructions
system.cpu.iew.iewExecLoadInsts               7721719                       # Number of load instructions executed
system.cpu.iew.iewExecSquashedInsts            253634                       # Number of squashed instructions skipped in execute
system.cpu.iew.exec_swp                             0                       # number of swp insts executed
system.cpu.iew.exec_nop                             0                       # number of nop insts executed
system.cpu.iew.exec_refs                     11868313                       # number of memory reference insts executed
system.cpu.iew.exec_branches                   486188                       # Number of branches executed
system.cpu.iew.exec_stores                    4146594                       # Number of stores executed
system.cpu.iew.exec_rate                     0.025382                       # Inst execution rate
system.cpu.iew.wb_sent                       11839943                       # cumulative count of insts sent to commit
system.cpu.iew.wb_count                      11839529                       # cumulative count of insts written-back
system.cpu.iew.wb_producers                   2484330                       # num instructions producing a value
system.cpu.iew.wb_consumers                   2586241                       # num instructions consuming a value
system.cpu.iew.wb_penalized                         0                       # number of instrctions required to write to 'other' IQ
system.cpu.iew.wb_rate                       0.019280                       # insts written-back per cycle
system.cpu.iew.wb_fanout                     0.960595                       # average fanout of values written-back
system.cpu.iew.wb_penalized_rate                    0                       # fraction of instructions written-back that wrote to 'other' IQ
system.cpu.commit.commitSquashedInsts         4455959                       # The number of squashed insts skipped by commit
system.cpu.commit.commitNonSpecStalls          393200                       # The number of times commit has been forced to stall to communicate backwards
system.cpu.commit.branchMispredicts             26685                       # The number of times a branch was mispredicted
system.cpu.commit.committed_per_cycle::samples    573745127                       # Number of insts commited each cycle
system.cpu.commit.committed_per_cycle::mean     0.020004                       # Number of insts commited each cycle
system.cpu.commit.committed_per_cycle::stdev     0.358472                       # Number of insts commited each cycle
system.cpu.commit.committed_per_cycle::underflows            0      0.00%      0.00% # Number of insts commited each cycle
system.cpu.commit.committed_per_cycle::0    570297907     99.40%     99.40% # Number of insts commited each cycle
system.cpu.commit.committed_per_cycle::1      2244569      0.39%     99.79% # Number of insts commited each cycle
system.cpu.commit.committed_per_cycle::2         5116      0.00%     99.79% # Number of insts commited each cycle
system.cpu.commit.committed_per_cycle::3        15984      0.00%     99.79% # Number of insts commited each cycle
system.cpu.commit.committed_per_cycle::4         5650      0.00%     99.80% # Number of insts commited each cycle
system.cpu.commit.committed_per_cycle::5         2470      0.00%     99.80% # Number of insts commited each cycle
system.cpu.commit.committed_per_cycle::6         6486      0.00%     99.80% # Number of insts commited each cycle
system.cpu.commit.committed_per_cycle::7       234789      0.04%     99.84% # Number of insts commited each cycle
system.cpu.commit.committed_per_cycle::8       932156      0.16%    100.00% # Number of insts commited each cycle
system.cpu.commit.committed_per_cycle::overflows            0      0.00%    100.00% # Number of insts commited each cycle
system.cpu.commit.committed_per_cycle::min_value            0                       # Number of insts commited each cycle
system.cpu.commit.committed_per_cycle::max_value            8                       # Number of insts commited each cycle
system.cpu.commit.committed_per_cycle::total    573745127                       # Number of insts commited each cycle
system.cpu.commit.committedInsts             10000004                       # Number of instructions committed
system.cpu.commit.committedOps               11477390                       # Number of ops (including micro ops) committed
system.cpu.commit.swp_count                         0                       # Number of s/w prefetches committed
system.cpu.commit.refs                        7825582                       # Number of memory references committed
system.cpu.commit.loads                       3973623                       # Number of loads committed
system.cpu.commit.membars                           0                       # Number of memory barriers committed
system.cpu.commit.branches                     485311                       # Number of branches committed
system.cpu.commit.fp_insts                          6                       # Number of committed floating point instructions.
system.cpu.commit.int_insts                  11058512                       # Number of committed integer instructions.
system.cpu.commit.function_calls                  337                       # Number of function calls committed.
system.cpu.commit.op_class_0::No_OpClass       418787      3.65%      3.65% # Class of committed instruction
system.cpu.commit.op_class_0::IntAlu          3232754     28.17%     31.82% # Class of committed instruction
system.cpu.commit.op_class_0::IntMult             111      0.00%     31.82% # Class of committed instruction
system.cpu.commit.op_class_0::IntDiv              154      0.00%     31.82% # Class of committed instruction
system.cpu.commit.op_class_0::FloatAdd              2      0.00%     31.82% # Class of committed instruction
system.cpu.commit.op_class_0::FloatCmp              0      0.00%     31.82% # Class of committed instruction
system.cpu.commit.op_class_0::FloatCvt              0      0.00%     31.82% # Class of committed instruction
system.cpu.commit.op_class_0::FloatMult             0      0.00%     31.82% # Class of committed instruction
system.cpu.commit.op_class_0::FloatDiv              0      0.00%     31.82% # Class of committed instruction
system.cpu.commit.op_class_0::FloatSqrt             0      0.00%     31.82% # Class of committed instruction
system.cpu.commit.op_class_0::SimdAdd               0      0.00%     31.82% # Class of committed instruction
system.cpu.commit.op_class_0::SimdAddAcc            0      0.00%     31.82% # Class of committed instruction
system.cpu.commit.op_class_0::SimdAlu               0      0.00%     31.82% # Class of committed instruction
system.cpu.commit.op_class_0::SimdCmp               0      0.00%     31.82% # Class of committed instruction
system.cpu.commit.op_class_0::SimdCvt               0      0.00%     31.82% # Class of committed instruction
system.cpu.commit.op_class_0::SimdMisc              0      0.00%     31.82% # Class of committed instruction
system.cpu.commit.op_class_0::SimdMult              0      0.00%     31.82% # Class of committed instruction
system.cpu.commit.op_class_0::SimdMultAcc            0      0.00%     31.82% # Class of committed instruction
system.cpu.commit.op_class_0::SimdShift             0      0.00%     31.82% # Class of committed instruction
system.cpu.commit.op_class_0::SimdShiftAcc            0      0.00%     31.82% # Class of committed instruction
system.cpu.commit.op_class_0::SimdSqrt              0      0.00%     31.82% # Class of committed instruction
system.cpu.commit.op_class_0::SimdFloatAdd            0      0.00%     31.82% # Class of committed instruction
system.cpu.commit.op_class_0::SimdFloatAlu            0      0.00%     31.82% # Class of committed instruction
system.cpu.commit.op_class_0::SimdFloatCmp            0      0.00%     31.82% # Class of committed instruction
system.cpu.commit.op_class_0::SimdFloatCvt            0      0.00%     31.82% # Class of committed instruction
system.cpu.commit.op_class_0::SimdFloatDiv            0      0.00%     31.82% # Class of committed instruction
system.cpu.commit.op_class_0::SimdFloatMisc            0      0.00%     31.82% # Class of committed instruction
system.cpu.commit.op_class_0::SimdFloatMult            0      0.00%     31.82% # Class of committed instruction
system.cpu.commit.op_class_0::SimdFloatMultAcc            0      0.00%     31.82% # Class of committed instruction
system.cpu.commit.op_class_0::SimdFloatSqrt            0      0.00%     31.82% # Class of committed instruction
system.cpu.commit.op_class_0::MemRead         3973623     34.62%     66.44% # Class of committed instruction
system.cpu.commit.op_class_0::MemWrite        3851959     33.56%    100.00% # Class of committed instruction
system.cpu.commit.op_class_0::IprAccess             0      0.00%    100.00% # Class of committed instruction
system.cpu.commit.op_class_0::InstPrefetch            0      0.00%    100.00% # Class of committed instruction
system.cpu.commit.op_class_0::total          11477390                       # Class of committed instruction
system.cpu.commit.bw_lim_events                932156                       # number cycles where commit BW limit reached
system.cpu.commit.bw_limited                        0                       # number of insts not committed due to BW limits
system.cpu.rob.rob_reads                    588746320                       # The number of ROB reads
system.cpu.rob.rob_writes                    32552041                       # The number of ROB writes
system.cpu.timesIdled                           98920                       # Number of times that the entire CPU went into an idle state and unscheduled itself
system.cpu.idleCycles                        39661677                       # Total number of cycles that the CPU has spent unscheduled due to idling
system.cpu.committedInsts                    10000004                       # Number of Instructions Simulated
system.cpu.committedOps                      11477390                       # Number of Ops (including micro ops) Simulated
system.cpu.cpi                              61.409179                       # CPI: Cycles Per Instruction
system.cpu.cpi_total                        61.409179                       # CPI: Total CPI of All Threads
system.cpu.ipc                               0.016284                       # IPC: Instructions Per Cycle
system.cpu.ipc_total                         0.016284                       # IPC: Total IPC of All Threads
system.cpu.int_regfile_reads                 32094370                       # number of integer regfile reads
system.cpu.int_regfile_writes                 6785229                       # number of integer regfile writes
system.cpu.fp_regfile_reads                        10                       # number of floating regfile reads
system.cpu.fp_regfile_writes                        8                       # number of floating regfile writes
system.cpu.cc_regfile_reads                   2690467                       # number of cc regfile reads
system.cpu.cc_regfile_writes                  1365033                       # number of cc regfile writes
system.cpu.misc_regfile_reads                12797056                       # number of misc regfile reads
system.cpu.misc_regfile_writes                      1                       # number of misc regfile writes
system.cpu.itb_walker_cache.tags.replacements            0                       # number of replacements
system.cpu.itb_walker_cache.tags.tagsinuse            0                       # Cycle average of tags in use
system.cpu.itb_walker_cache.tags.total_refs            0                       # Total number of references to valid blocks.
system.cpu.itb_walker_cache.tags.sampled_refs            0                       # Sample count of references to valid blocks.
system.cpu.itb_walker_cache.tags.avg_refs          nan                       # Average number of references to valid blocks.
system.cpu.itb_walker_cache.tags.warmup_cycle            0                       # Cycle when the warmup percentage was hit.
system.cpu.itb_walker_cache.tags.tag_accesses            0                       # Number of tag accesses
system.cpu.itb_walker_cache.tags.data_accesses            0                       # Number of data accesses
system.cpu.itb_walker_cache.blocked_cycles::no_mshrs            0                       # number of cycles access was blocked
system.cpu.itb_walker_cache.blocked_cycles::no_targets            0                       # number of cycles access was blocked
system.cpu.itb_walker_cache.blocked::no_mshrs            0                       # number of cycles access was blocked
system.cpu.itb_walker_cache.blocked::no_targets            0                       # number of cycles access was blocked
system.cpu.itb_walker_cache.avg_blocked_cycles::no_mshrs          nan                       # average number of cycles each access was blocked
system.cpu.itb_walker_cache.avg_blocked_cycles::no_targets          nan                       # average number of cycles each access was blocked
system.cpu.itb_walker_cache.fast_writes             0                       # number of fast writes performed
system.cpu.itb_walker_cache.cache_copies            0                       # number of cache copies performed
system.cpu.itb_walker_cache.no_allocate_misses            0                       # Number of misses that were no-allocate
system.cpu.dtb_walker_cache.tags.replacements            0                       # number of replacements
system.cpu.dtb_walker_cache.tags.tagsinuse            0                       # Cycle average of tags in use
system.cpu.dtb_walker_cache.tags.total_refs            0                       # Total number of references to valid blocks.
system.cpu.dtb_walker_cache.tags.sampled_refs            0                       # Sample count of references to valid blocks.
system.cpu.dtb_walker_cache.tags.avg_refs          nan                       # Average number of references to valid blocks.
system.cpu.dtb_walker_cache.tags.warmup_cycle            0                       # Cycle when the warmup percentage was hit.
system.cpu.dtb_walker_cache.tags.tag_accesses            0                       # Number of tag accesses
system.cpu.dtb_walker_cache.tags.data_accesses            0                       # Number of data accesses
system.cpu.dtb_walker_cache.blocked_cycles::no_mshrs            0                       # number of cycles access was blocked
system.cpu.dtb_walker_cache.blocked_cycles::no_targets            0                       # number of cycles access was blocked
system.cpu.dtb_walker_cache.blocked::no_mshrs            0                       # number of cycles access was blocked
system.cpu.dtb_walker_cache.blocked::no_targets            0                       # number of cycles access was blocked
system.cpu.dtb_walker_cache.avg_blocked_cycles::no_mshrs          nan                       # average number of cycles each access was blocked
system.cpu.dtb_walker_cache.avg_blocked_cycles::no_targets          nan                       # average number of cycles each access was blocked
system.cpu.dtb_walker_cache.fast_writes             0                       # number of fast writes performed
system.cpu.dtb_walker_cache.cache_copies            0                       # number of cache copies performed
system.cpu.dtb_walker_cache.no_allocate_misses            0                       # Number of misses that were no-allocate
system.cpu.icache.tags.replacements                89                       # number of replacements
system.cpu.icache.tags.tagsinuse           316.299390                       # Cycle average of tags in use
system.cpu.icache.tags.total_refs             2370104                       # Total number of references to valid blocks.
system.cpu.icache.tags.sampled_refs               412                       # Sample count of references to valid blocks.
system.cpu.icache.tags.avg_refs           5752.679612                       # Average number of references to valid blocks.
system.cpu.icache.tags.warmup_cycle                 0                       # Cycle when the warmup percentage was hit.
system.cpu.icache.tags.occ_blocks::cpu.inst   316.299390                       # Average occupied blocks per requestor
system.cpu.icache.tags.occ_percent::cpu.inst     0.617772                       # Average percentage of cache occupancy
system.cpu.icache.tags.occ_percent::total     0.617772                       # Average percentage of cache occupancy
system.cpu.icache.tags.occ_task_id_blocks::1024          323                       # Occupied blocks per task id
system.cpu.icache.tags.age_task_id_blocks_1024::4          323                       # Occupied blocks per task id
system.cpu.icache.tags.occ_task_id_percent::1024     0.630859                       # Percentage of cache occupancy per task id
system.cpu.icache.tags.tag_accesses           4741743                       # Number of tag accesses
system.cpu.icache.tags.data_accesses          4741743                       # Number of data accesses
system.cpu.icache.ReadReq_hits::cpu.inst      2370104                       # number of ReadReq hits
system.cpu.icache.ReadReq_hits::total         2370104                       # number of ReadReq hits
system.cpu.icache.demand_hits::cpu.inst       2370104                       # number of demand (read+write) hits
system.cpu.icache.demand_hits::total          2370104                       # number of demand (read+write) hits
system.cpu.icache.overall_hits::cpu.inst      2370104                       # number of overall hits
system.cpu.icache.overall_hits::total         2370104                       # number of overall hits
system.cpu.icache.ReadReq_misses::cpu.inst          561                       # number of ReadReq misses
system.cpu.icache.ReadReq_misses::total           561                       # number of ReadReq misses
system.cpu.icache.demand_misses::cpu.inst          561                       # number of demand (read+write) misses
system.cpu.icache.demand_misses::total            561                       # number of demand (read+write) misses
system.cpu.icache.overall_misses::cpu.inst          561                       # number of overall misses
system.cpu.icache.overall_misses::total           561                       # number of overall misses
system.cpu.icache.ReadReq_miss_latency::cpu.inst     82226500                       # number of ReadReq miss cycles
system.cpu.icache.ReadReq_miss_latency::total     82226500                       # number of ReadReq miss cycles
system.cpu.icache.demand_miss_latency::cpu.inst     82226500                       # number of demand (read+write) miss cycles
system.cpu.icache.demand_miss_latency::total     82226500                       # number of demand (read+write) miss cycles
system.cpu.icache.overall_miss_latency::cpu.inst     82226500                       # number of overall miss cycles
system.cpu.icache.overall_miss_latency::total     82226500                       # number of overall miss cycles
system.cpu.icache.ReadReq_accesses::cpu.inst      2370665                       # number of ReadReq accesses(hits+misses)
system.cpu.icache.ReadReq_accesses::total      2370665                       # number of ReadReq accesses(hits+misses)
system.cpu.icache.demand_accesses::cpu.inst      2370665                       # number of demand (read+write) accesses
system.cpu.icache.demand_accesses::total      2370665                       # number of demand (read+write) accesses
system.cpu.icache.overall_accesses::cpu.inst      2370665                       # number of overall (read+write) accesses
system.cpu.icache.overall_accesses::total      2370665                       # number of overall (read+write) accesses
system.cpu.icache.ReadReq_miss_rate::cpu.inst     0.000237                       # miss rate for ReadReq accesses
system.cpu.icache.ReadReq_miss_rate::total     0.000237                       # miss rate for ReadReq accesses
system.cpu.icache.demand_miss_rate::cpu.inst     0.000237                       # miss rate for demand accesses
system.cpu.icache.demand_miss_rate::total     0.000237                       # miss rate for demand accesses
system.cpu.icache.overall_miss_rate::cpu.inst     0.000237                       # miss rate for overall accesses
system.cpu.icache.overall_miss_rate::total     0.000237                       # miss rate for overall accesses
system.cpu.icache.ReadReq_avg_miss_latency::cpu.inst 146571.301248                       # average ReadReq miss latency
system.cpu.icache.ReadReq_avg_miss_latency::total 146571.301248                       # average ReadReq miss latency
system.cpu.icache.demand_avg_miss_latency::cpu.inst 146571.301248                       # average overall miss latency
system.cpu.icache.demand_avg_miss_latency::total 146571.301248                       # average overall miss latency
system.cpu.icache.overall_avg_miss_latency::cpu.inst 146571.301248                       # average overall miss latency
system.cpu.icache.overall_avg_miss_latency::total 146571.301248                       # average overall miss latency
system.cpu.icache.blocked_cycles::no_mshrs          193                       # number of cycles access was blocked
system.cpu.icache.blocked_cycles::no_targets           59                       # number of cycles access was blocked
system.cpu.icache.blocked::no_mshrs                 2                       # number of cycles access was blocked
system.cpu.icache.blocked::no_targets               1                       # number of cycles access was blocked
system.cpu.icache.avg_blocked_cycles::no_mshrs    96.500000                       # average number of cycles each access was blocked
system.cpu.icache.avg_blocked_cycles::no_targets           59                       # average number of cycles each access was blocked
system.cpu.icache.fast_writes                       0                       # number of fast writes performed
system.cpu.icache.cache_copies                      0                       # number of cache copies performed
system.cpu.icache.ReadReq_mshr_hits::cpu.inst          148                       # number of ReadReq MSHR hits
system.cpu.icache.ReadReq_mshr_hits::total          148                       # number of ReadReq MSHR hits
system.cpu.icache.demand_mshr_hits::cpu.inst          148                       # number of demand (read+write) MSHR hits
system.cpu.icache.demand_mshr_hits::total          148                       # number of demand (read+write) MSHR hits
system.cpu.icache.overall_mshr_hits::cpu.inst          148                       # number of overall MSHR hits
system.cpu.icache.overall_mshr_hits::total          148                       # number of overall MSHR hits
system.cpu.icache.ReadReq_mshr_misses::cpu.inst          413                       # number of ReadReq MSHR misses
system.cpu.icache.ReadReq_mshr_misses::total          413                       # number of ReadReq MSHR misses
system.cpu.icache.demand_mshr_misses::cpu.inst          413                       # number of demand (read+write) MSHR misses
system.cpu.icache.demand_mshr_misses::total          413                       # number of demand (read+write) MSHR misses
system.cpu.icache.overall_mshr_misses::cpu.inst          413                       # number of overall MSHR misses
system.cpu.icache.overall_mshr_misses::total          413                       # number of overall MSHR misses
system.cpu.icache.ReadReq_mshr_miss_latency::cpu.inst     64474000                       # number of ReadReq MSHR miss cycles
system.cpu.icache.ReadReq_mshr_miss_latency::total     64474000                       # number of ReadReq MSHR miss cycles
system.cpu.icache.demand_mshr_miss_latency::cpu.inst     64474000                       # number of demand (read+write) MSHR miss cycles
system.cpu.icache.demand_mshr_miss_latency::total     64474000                       # number of demand (read+write) MSHR miss cycles
system.cpu.icache.overall_mshr_miss_latency::cpu.inst     64474000                       # number of overall MSHR miss cycles
system.cpu.icache.overall_mshr_miss_latency::total     64474000                       # number of overall MSHR miss cycles
system.cpu.icache.ReadReq_mshr_miss_rate::cpu.inst     0.000174                       # mshr miss rate for ReadReq accesses
system.cpu.icache.ReadReq_mshr_miss_rate::total     0.000174                       # mshr miss rate for ReadReq accesses
system.cpu.icache.demand_mshr_miss_rate::cpu.inst     0.000174                       # mshr miss rate for demand accesses
system.cpu.icache.demand_mshr_miss_rate::total     0.000174                       # mshr miss rate for demand accesses
system.cpu.icache.overall_mshr_miss_rate::cpu.inst     0.000174                       # mshr miss rate for overall accesses
system.cpu.icache.overall_mshr_miss_rate::total     0.000174                       # mshr miss rate for overall accesses
system.cpu.icache.ReadReq_avg_mshr_miss_latency::cpu.inst 156111.380145                       # average ReadReq mshr miss latency
system.cpu.icache.ReadReq_avg_mshr_miss_latency::total 156111.380145                       # average ReadReq mshr miss latency
system.cpu.icache.demand_avg_mshr_miss_latency::cpu.inst 156111.380145                       # average overall mshr miss latency
system.cpu.icache.demand_avg_mshr_miss_latency::total 156111.380145                       # average overall mshr miss latency
system.cpu.icache.overall_avg_mshr_miss_latency::cpu.inst 156111.380145                       # average overall mshr miss latency
system.cpu.icache.overall_avg_mshr_miss_latency::total 156111.380145                       # average overall mshr miss latency
system.cpu.icache.no_allocate_misses                0                       # Number of misses that were no-allocate
system.cpu.dcache.tags.replacements           1108933                       # number of replacements
system.cpu.dcache.tags.tagsinuse           469.701808                       # Cycle average of tags in use
system.cpu.dcache.tags.total_refs             4382372                       # Total number of references to valid blocks.
system.cpu.dcache.tags.sampled_refs           1109445                       # Sample count of references to valid blocks.
system.cpu.dcache.tags.avg_refs              3.950058                       # Average number of references to valid blocks.
system.cpu.dcache.tags.warmup_cycle       36730388000                       # Cycle when the warmup percentage was hit.
system.cpu.dcache.tags.occ_blocks::cpu.data   469.701808                       # Average occupied blocks per requestor
system.cpu.dcache.tags.occ_percent::cpu.data     0.917386                       # Average percentage of cache occupancy
system.cpu.dcache.tags.occ_percent::total     0.917386                       # Average percentage of cache occupancy
system.cpu.dcache.tags.occ_task_id_blocks::1024          512                       # Occupied blocks per task id
system.cpu.dcache.tags.age_task_id_blocks_1024::0           33                       # Occupied blocks per task id
system.cpu.dcache.tags.age_task_id_blocks_1024::1          283                       # Occupied blocks per task id
system.cpu.dcache.tags.age_task_id_blocks_1024::2          196                       # Occupied blocks per task id
system.cpu.dcache.tags.occ_task_id_percent::1024            1                       # Percentage of cache occupancy per task id
system.cpu.dcache.tags.tag_accesses          16762701                       # Number of tag accesses
system.cpu.dcache.tags.data_accesses         16762701                       # Number of data accesses
system.cpu.dcache.ReadReq_hits::cpu.data      1123632                       # number of ReadReq hits
system.cpu.dcache.ReadReq_hits::total         1123632                       # number of ReadReq hits
system.cpu.dcache.WriteReq_hits::cpu.data      3258739                       # number of WriteReq hits
system.cpu.dcache.WriteReq_hits::total        3258739                       # number of WriteReq hits
system.cpu.dcache.demand_hits::cpu.data       4382371                       # number of demand (read+write) hits
system.cpu.dcache.demand_hits::total          4382371                       # number of demand (read+write) hits
system.cpu.dcache.overall_hits::cpu.data      4382371                       # number of overall hits
system.cpu.dcache.overall_hits::total         4382371                       # number of overall hits
system.cpu.dcache.ReadReq_misses::cpu.data      2851038                       # number of ReadReq misses
system.cpu.dcache.ReadReq_misses::total       2851038                       # number of ReadReq misses
system.cpu.dcache.WriteReq_misses::cpu.data       593219                       # number of WriteReq misses
system.cpu.dcache.WriteReq_misses::total       593219                       # number of WriteReq misses
system.cpu.dcache.demand_misses::cpu.data      3444257                       # number of demand (read+write) misses
system.cpu.dcache.demand_misses::total        3444257                       # number of demand (read+write) misses
system.cpu.dcache.overall_misses::cpu.data      3444257                       # number of overall misses
system.cpu.dcache.overall_misses::total       3444257                       # number of overall misses
system.cpu.dcache.ReadReq_miss_latency::cpu.data 739704191500                       # number of ReadReq miss cycles
system.cpu.dcache.ReadReq_miss_latency::total 739704191500                       # number of ReadReq miss cycles
system.cpu.dcache.WriteReq_miss_latency::cpu.data 277393309500                       # number of WriteReq miss cycles
system.cpu.dcache.WriteReq_miss_latency::total 277393309500                       # number of WriteReq miss cycles
system.cpu.dcache.demand_miss_latency::cpu.data 1017097501000                       # number of demand (read+write) miss cycles
system.cpu.dcache.demand_miss_latency::total 1017097501000                       # number of demand (read+write) miss cycles
system.cpu.dcache.overall_miss_latency::cpu.data 1017097501000                       # number of overall miss cycles
system.cpu.dcache.overall_miss_latency::total 1017097501000                       # number of overall miss cycles
system.cpu.dcache.ReadReq_accesses::cpu.data      3974670                       # number of ReadReq accesses(hits+misses)
system.cpu.dcache.ReadReq_accesses::total      3974670                       # number of ReadReq accesses(hits+misses)
system.cpu.dcache.WriteReq_accesses::cpu.data      3851958                       # number of WriteReq accesses(hits+misses)
system.cpu.dcache.WriteReq_accesses::total      3851958                       # number of WriteReq accesses(hits+misses)
system.cpu.dcache.demand_accesses::cpu.data      7826628                       # number of demand (read+write) accesses
system.cpu.dcache.demand_accesses::total      7826628                       # number of demand (read+write) accesses
system.cpu.dcache.overall_accesses::cpu.data      7826628                       # number of overall (read+write) accesses
system.cpu.dcache.overall_accesses::total      7826628                       # number of overall (read+write) accesses
system.cpu.dcache.ReadReq_miss_rate::cpu.data     0.717302                       # miss rate for ReadReq accesses
system.cpu.dcache.ReadReq_miss_rate::total     0.717302                       # miss rate for ReadReq accesses
system.cpu.dcache.WriteReq_miss_rate::cpu.data     0.154005                       # miss rate for WriteReq accesses
system.cpu.dcache.WriteReq_miss_rate::total     0.154005                       # miss rate for WriteReq accesses
system.cpu.dcache.demand_miss_rate::cpu.data     0.440069                       # miss rate for demand accesses
system.cpu.dcache.demand_miss_rate::total     0.440069                       # miss rate for demand accesses
system.cpu.dcache.overall_miss_rate::cpu.data     0.440069                       # miss rate for overall accesses
system.cpu.dcache.overall_miss_rate::total     0.440069                       # miss rate for overall accesses
system.cpu.dcache.ReadReq_avg_miss_latency::cpu.data 259450.835625                       # average ReadReq miss latency
system.cpu.dcache.ReadReq_avg_miss_latency::total 259450.835625                       # average ReadReq miss latency
system.cpu.dcache.WriteReq_avg_miss_latency::cpu.data 467606.920041                       # average WriteReq miss latency
system.cpu.dcache.WriteReq_avg_miss_latency::total 467606.920041                       # average WriteReq miss latency
system.cpu.dcache.demand_avg_miss_latency::cpu.data 295302.441426                       # average overall miss latency
system.cpu.dcache.demand_avg_miss_latency::total 295302.441426                       # average overall miss latency
system.cpu.dcache.overall_avg_miss_latency::cpu.data 295302.441426                       # average overall miss latency
system.cpu.dcache.overall_avg_miss_latency::total 295302.441426                       # average overall miss latency
system.cpu.dcache.blocked_cycles::no_mshrs     30405937                       # number of cycles access was blocked
system.cpu.dcache.blocked_cycles::no_targets            0                       # number of cycles access was blocked
system.cpu.dcache.blocked::no_mshrs             52358                       # number of cycles access was blocked
system.cpu.dcache.blocked::no_targets               0                       # number of cycles access was blocked
system.cpu.dcache.avg_blocked_cycles::no_mshrs   580.731445                       # average number of cycles each access was blocked
system.cpu.dcache.avg_blocked_cycles::no_targets          nan                       # average number of cycles each access was blocked
system.cpu.dcache.fast_writes                       0                       # number of fast writes performed
system.cpu.dcache.cache_copies                      0                       # number of cache copies performed
system.cpu.dcache.writebacks::writebacks       657235                       # number of writebacks
system.cpu.dcache.writebacks::total            657235                       # number of writebacks
system.cpu.dcache.ReadReq_mshr_hits::cpu.data      2334807                       # number of ReadReq MSHR hits
system.cpu.dcache.ReadReq_mshr_hits::total      2334807                       # number of ReadReq MSHR hits
system.cpu.dcache.WriteReq_mshr_hits::cpu.data            3                       # number of WriteReq MSHR hits
system.cpu.dcache.WriteReq_mshr_hits::total            3                       # number of WriteReq MSHR hits
system.cpu.dcache.demand_mshr_hits::cpu.data      2334810                       # number of demand (read+write) MSHR hits
system.cpu.dcache.demand_mshr_hits::total      2334810                       # number of demand (read+write) MSHR hits
system.cpu.dcache.overall_mshr_hits::cpu.data      2334810                       # number of overall MSHR hits
system.cpu.dcache.overall_mshr_hits::total      2334810                       # number of overall MSHR hits
system.cpu.dcache.ReadReq_mshr_misses::cpu.data       516231                       # number of ReadReq MSHR misses
system.cpu.dcache.ReadReq_mshr_misses::total       516231                       # number of ReadReq MSHR misses
system.cpu.dcache.WriteReq_mshr_misses::cpu.data       593216                       # number of WriteReq MSHR misses
system.cpu.dcache.WriteReq_mshr_misses::total       593216                       # number of WriteReq MSHR misses
system.cpu.dcache.demand_mshr_misses::cpu.data      1109447                       # number of demand (read+write) MSHR misses
system.cpu.dcache.demand_mshr_misses::total      1109447                       # number of demand (read+write) MSHR misses
system.cpu.dcache.overall_mshr_misses::cpu.data      1109447                       # number of overall MSHR misses
system.cpu.dcache.overall_mshr_misses::total      1109447                       # number of overall MSHR misses
system.cpu.dcache.ReadReq_mshr_miss_latency::cpu.data 294484999500                       # number of ReadReq MSHR miss cycles
system.cpu.dcache.ReadReq_mshr_miss_latency::total 294484999500                       # number of ReadReq MSHR miss cycles
system.cpu.dcache.WriteReq_mshr_miss_latency::cpu.data 276206686000                       # number of WriteReq MSHR miss cycles
system.cpu.dcache.WriteReq_mshr_miss_latency::total 276206686000                       # number of WriteReq MSHR miss cycles
system.cpu.dcache.demand_mshr_miss_latency::cpu.data 570691685500                       # number of demand (read+write) MSHR miss cycles
system.cpu.dcache.demand_mshr_miss_latency::total 570691685500                       # number of demand (read+write) MSHR miss cycles
system.cpu.dcache.overall_mshr_miss_latency::cpu.data 570691685500                       # number of overall MSHR miss cycles
system.cpu.dcache.overall_mshr_miss_latency::total 570691685500                       # number of overall MSHR miss cycles
system.cpu.dcache.ReadReq_mshr_miss_rate::cpu.data     0.129880                       # mshr miss rate for ReadReq accesses
system.cpu.dcache.ReadReq_mshr_miss_rate::total     0.129880                       # mshr miss rate for ReadReq accesses
system.cpu.dcache.WriteReq_mshr_miss_rate::cpu.data     0.154004                       # mshr miss rate for WriteReq accesses
system.cpu.dcache.WriteReq_mshr_miss_rate::total     0.154004                       # mshr miss rate for WriteReq accesses
system.cpu.dcache.demand_mshr_miss_rate::cpu.data     0.141753                       # mshr miss rate for demand accesses
system.cpu.dcache.demand_mshr_miss_rate::total     0.141753                       # mshr miss rate for demand accesses
system.cpu.dcache.overall_mshr_miss_rate::cpu.data     0.141753                       # mshr miss rate for overall accesses
system.cpu.dcache.overall_mshr_miss_rate::total     0.141753                       # mshr miss rate for overall accesses
system.cpu.dcache.ReadReq_avg_mshr_miss_latency::cpu.data 570451.986611                       # average ReadReq mshr miss latency
system.cpu.dcache.ReadReq_avg_mshr_miss_latency::total 570451.986611                       # average ReadReq mshr miss latency
system.cpu.dcache.WriteReq_avg_mshr_miss_latency::cpu.data 465608.961997                       # average WriteReq mshr miss latency
system.cpu.dcache.WriteReq_avg_mshr_miss_latency::total 465608.961997                       # average WriteReq mshr miss latency
system.cpu.dcache.demand_avg_mshr_miss_latency::cpu.data 514392.923231                       # average overall mshr miss latency
system.cpu.dcache.demand_avg_mshr_miss_latency::total 514392.923231                       # average overall mshr miss latency
system.cpu.dcache.overall_avg_mshr_miss_latency::cpu.data 514392.923231                       # average overall mshr miss latency
system.cpu.dcache.overall_avg_mshr_miss_latency::total 514392.923231                       # average overall mshr miss latency
system.cpu.dcache.no_allocate_misses                0                       # Number of misses that were no-allocate

---------- End Simulation Statistics   ----------
