gem5 Simulator System.  http://gem5.org
gem5 is copyrighted software; use the --copyright option for details.

gem5 compiled Jul 20 2015 14:46:23
gem5 started Jul 23 2015 10:50:12
gem5 executing on node348
command line: ../../build/X86/gem5.opt --stats-file=gem5-DRAMCache-stats.log ../../configs/example/se.py --cpu-type=detailed --num-cpus=4 --cpu-clock=2GHz --mem-type=nvmain --nvmain-config=../../../nvmain/Config/Hybrid_NoMigration_example.config --caches --maxinsts=100000000 --l1i_size 32kB --l1d_size 32kB --l2cache --l2_size 256kB --l3cache --l3_size 1MB --cmd=/home/liao/chenyujie/benchs/cpu_spec2006/benchspec/CPU2006/403.gcc/exe/gcc_base.amd64-m64-gcc48-nn --options=/home/liao/chenyujie/benchs/cpu_spec2006/benchspec/CPU2006/403.gcc/data/ref/input/s04.i -n 1
Global frequency set at 1000000000000 ticks per second
NVMainControl: Reading NVMain config file: ../../../nvmain/Config/Hybrid_NoMigration_example.config.
NVMain: GlobalEventQueue: Added a memory subsystem running at 400MHz. My frequency is 2000MHz.
Reading channel config file: ../../../nvmain/Config/Hybrid_DRAM_channel.config
Created a First Ready First Come First Serve memory controller!

defaultMemory.channel0.FRFCFS capacity is 1024 MB.
Reading channel config file: ../../../nvmain/Config/Hybrid_NVM_channel.config
Created a First Ready First Come First Serve memory controller!

defaultMemory.channel1.FRFCFS capacity is 1024 MB.
Reading channel config file: ../../../nvmain/Config/Hybrid_NVM_channel.config
Created a First Ready First Come First Serve memory controller!

defaultMemory.channel2.FRFCFS capacity is 1024 MB.
Reading channel config file: ../../../nvmain/Config/Hybrid_NVM_channel.config
Created a First Ready First Come First Serve memory controller!

defaultMemory.channel3.FRFCFS capacity is 1024 MB.
0: system.remote_gdb.listener: listening for remote gdb #0 on port 7003
**** REAL SIMULATION ****
info: Entering event queue @ 0.  Starting simulation...
warn: ignoring syscall rt_sigaction(140737488349248, 8, ...)
warn: ignoring syscall rt_sigaction(140737488349248, 11, ...)
warn: ignoring syscall rt_sigaction(140737488349248, 4, ...)
warn: ignoring syscall rt_sigaction(140737488349248, 7, ...)
warn: ignoring syscall rt_sigaction(140737488349248, 6, ...)
info: Increasing stack size by one page.
info: Increasing stack size by one page.
Exiting @ tick 154172972500 because a thread reached the max instruction count
